Version 4
SHEET 1 1780 992
WIRE 32 160 0 160
WIRE 192 160 160 160
WIRE 32 256 0 256
WIRE 192 256 192 160
WIRE 192 256 160 256
WIRE 32 288 -16 288
WIRE 272 288 160 288
WIRE 336 288 272 288
WIRE 480 288 416 288
WIRE 608 288 480 288
WIRE 816 288 720 288
WIRE -16 304 -16 288
WIRE 816 368 816 288
WIRE -528 416 -576 416
WIRE 224 416 80 416
WIRE 224 480 224 416
WIRE 224 480 192 480
WIRE -96 496 -144 496
WIRE 80 496 80 416
WIRE 80 496 48 496
WIRE 128 496 80 496
WIRE 272 512 272 288
WIRE 272 512 192 512
WIRE -656 560 -656 528
WIRE 224 576 80 576
WIRE 224 640 224 576
WIRE 224 640 192 640
WIRE -96 656 -144 656
WIRE 80 656 80 576
WIRE 80 656 48 656
WIRE 128 656 80 656
WIRE -656 672 -656 640
WIRE 480 672 480 288
WIRE 480 672 192 672
FLAG -16 304 0
FLAG 0 256 Vcc
FLAG 0 160 Vin
FLAG 816 368 0
FLAG 160 528 0
FLAG 160 464 Vcc
FLAG 160 688 0
FLAG 160 624 Vcc
FLAG -144 496 Vadc1
FLAG -144 656 Vadc2
FLAG -528 416 Vcc
FLAG -656 672 0
FLAG -656 528 Vin
SYMBOL res 432 272 R90
WINDOW 0 0 56 VBottom 2
WINDOW 3 32 56 VTop 2
SYMATTR InstName R1
SYMATTR Value {Rref}
SYMBOL OpAmps\\UniversalOpAmp2 160 496 M0
SYMATTR InstName U2
SYMATTR Value2 Avol=Abuf GBW=GBWbuf Slew=SLEWbuf
SYMATTR SpiceLine Ilimit=40m Rail=0 Vos=0
SYMBOL OpAmps\\UniversalOpAmp2 160 656 M0
SYMATTR InstName U3
SYMATTR Value2 Avol=Abuf GBW=GBWbuf Slew=SLEWbuf
SYMATTR SpiceLine Ilimit=40m Rail=0 Vos=0
SYMBOL voltage -656 544 R0
WINDOW 123 30 115 Left 2
WINDOW 39 0 0 Left 0
WINDOW 3 29 86 Left 2
SYMATTR Value2 AC 1
SYMATTR Value SINE(1.65 1.65 100)
SYMATTR InstName V4
SYMBOL powersupply -624 416 R0
SYMATTR InstName X2
SYMBOL BUF634A 96 272 M0
SYMATTR InstName U4
SYMBOL capacitor 656 288 R0
SYMATTR InstName X4
SYMBOL adc -16 656 M0
SYMATTR InstName X5
SYMBOL adc -16 496 M0
SYMATTR InstName X6
TEXT 1000 528 Left 2 !.param Abuf=1Meg
TEXT 1000 552 Left 2 !.param GBWbuf 70Meg
TEXT 1000 576 Left 2 !.param SLEWbuf 200Meg
TEXT 1000 184 Left 2 !.tran 0 10m 0
TEXT 1000 216 Left 2 ;.ac dec 100 1 10Meg
TEXT 480 208 Left 2 !.param R=1 L=1n Ca=1u Cb=0
TEXT 1000 248 Left 2 ;.noise V(vadc2) V1 dec 100 10 1Meg
TEXT 1000 136 Left 4 ;Analysis
TEXT 1000 488 Left 4 ;Component parameters
TEXT -704 208 Left 4 ;Voltages
TEXT 1000 32 Left 2 !.meas AC ideal_output PARAM V(n002)/I(X1)
TEXT 1000 624 Left 2 !.param Rref=1k
TEXT 1000 656 Left 2 !.param Cref 1u
TEXT 1000 64 Left 2 !.meas AC real_read_output PARAM V(vadc2)/I(X1)
TEXT 480 160 Left 4 ;DUT parameters
TEXT -704 288 Left 2 !.param Vdda 3.3
TEXT -704 328 Left 2 !.param Vset 15
