Version 4
SHEET 1 1016 680
WIRE 64 0 32 0
WIRE 192 0 192 -32
WIRE 192 0 128 0
WIRE 208 0 192 0
WIRE 208 64 208 0
WIRE 32 112 32 0
WIRE 48 112 32 112
WIRE 144 112 128 112
WIRE -48 240 -96 240
WIRE 32 240 32 112
WIRE 32 240 16 240
WIRE 128 240 32 240
WIRE 208 240 208 160
WIRE 368 240 208 240
WIRE 464 240 368 240
WIRE 560 240 464 240
WIRE 704 240 560 240
WIRE 464 272 464 240
WIRE 560 272 560 240
WIRE 368 304 368 240
WIRE -96 320 -96 240
WIRE 464 368 464 336
WIRE 560 368 560 336
WIRE 704 368 704 320
WIRE 368 448 368 368
WIRE 704 464 704 448
FLAG 704 464 0
FLAG 192 -32 Vout
IOPIN 192 -32 Out
FLAG -96 320 0
FLAG 464 368 0
FLAG 560 368 0
FLAG 368 448 0
SYMBOL voltage 704 352 R0
WINDOW 123 24 124 Left 2
WINDOW 39 24 152 Left 2
SYMATTR SpiceLine Rser=100m
SYMATTR InstName V1
SYMATTR Value SINE({Vdc} 2m 100k)
SYMBOL bv 704 224 R0
SYMATTR InstName B1
SYMATTR Value V=white(10e6*time)/70
SYMBOL res 224 224 R90
WINDOW 0 0 56 VBottom 2
WINDOW 3 32 56 VTop 2
SYMATTR InstName R1
SYMATTR Value 1k
SYMBOL cap 16 224 R90
WINDOW 0 0 32 VBottom 2
WINDOW 3 32 32 VTop 2
SYMATTR InstName C1
SYMATTR Value 10µ
SYMBOL schottky 128 -16 R90
WINDOW 0 0 32 VBottom 2
WINDOW 3 32 32 VTop 2
SYMATTR InstName D1
SYMATTR Value 1N5819
SYMATTR Description Diode
SYMATTR Type diode
SYMBOL npn 144 160 M180
SYMATTR InstName Q1
SYMBOL res 144 96 R90
WINDOW 0 0 56 VBottom 2
WINDOW 3 32 56 VTop 2
SYMATTR InstName R2
SYMATTR Value 100
SYMBOL cap 448 272 R0
SYMATTR InstName C2
SYMATTR Value 100µ
SYMBOL cap 544 272 R0
SYMATTR InstName C3
SYMATTR Value 10µ
SYMBOL diode 384 368 R180
WINDOW 0 24 64 Left 2
WINDOW 3 24 0 Left 2
SYMATTR InstName D2
SYMATTR Value MMSD4148
SYMATTR Description Zener Diode
SYMATTR Type zener
TEXT 664 568 Left 2 ;.tran 0 3m 0 1n
TEXT 272 8 Left 2 !.param Vdc={mc(Vset, 0.0075)}
TEXT 664 600 Left 2 ;.step param run 1 5 1
TEXT 272 48 Left 2 !.param Vset=5
TEXT 280 88 Left 2 ;.param Vdc = 0
TEXT 72 544 Left 2 !.noise V(Vout) V1 dec 100 10 1Meg
