Version 4
SHEET 1 880 680
WIRE 160 144 160 96
WIRE 160 272 160 224
WIRE 160 368 160 352
FLAG 160 368 0
FLAG 160 96 Vout
IOPIN 160 96 Out
SYMBOL voltage 160 256 R0
WINDOW 123 24 124 Left 2
WINDOW 39 24 152 Left 2
SYMATTR SpiceLine Rser=100m
SYMATTR InstName V1
SYMATTR Value SINE({Vdc} 2m 100k)
SYMBOL bv 160 128 R0
SYMATTR InstName B1
SYMATTR Value V=white(10e6*time)/100
TEXT 312 8 Left 2 ;.step param Vdc list 3.3 5 7.5 10 16 18 25 30 40
TEXT 120 472 Left 2 ;.tran 0 5m 0 5n
TEXT 320 56 Left 2 !.param Vdc={mc(Vset, 0.0075)}
TEXT 120 504 Left 2 ;.step param run 1 5 1
