Version 4
SHEET 1 2304 760
WIRE 64 0 32 0
WIRE 192 0 192 -32
WIRE 192 0 128 0
WIRE 208 0 192 0
WIRE 928 32 864 32
WIRE 976 32 928 32
WIRE 1104 32 976 32
WIRE 1152 32 1104 32
WIRE 1264 32 1232 32
WIRE 1344 32 1264 32
WIRE 1424 32 1408 32
WIRE 1472 32 1424 32
WIRE 1584 32 1552 32
WIRE 1664 32 1584 32
WIRE 1760 32 1664 32
WIRE 1824 32 1760 32
WIRE 1968 32 1904 32
WIRE 864 48 864 32
WIRE 208 64 208 0
WIRE 1584 64 1584 32
WIRE 1664 64 1664 32
WIRE 1760 80 1760 32
WIRE 928 96 928 32
WIRE 1104 96 1104 32
WIRE 1264 96 1264 32
WIRE 32 112 32 0
WIRE 48 112 32 112
WIRE 144 112 128 112
WIRE 864 160 864 112
WIRE 1424 160 1424 32
WIRE 1472 160 1424 160
WIRE 1584 160 1584 128
WIRE 1584 160 1536 160
WIRE 1664 192 1664 144
WIRE 1712 192 1664 192
WIRE 1760 192 1760 144
WIRE 1760 192 1712 192
WIRE 928 208 928 176
WIRE 1024 208 928 208
WIRE 1392 208 1344 208
WIRE -48 240 -96 240
WIRE 32 240 32 112
WIRE 32 240 16 240
WIRE 128 240 32 240
WIRE 208 240 208 160
WIRE 272 240 208 240
WIRE 336 240 272 240
WIRE 432 240 336 240
WIRE 528 240 432 240
WIRE 1712 240 1712 192
WIRE 928 256 928 208
WIRE 336 272 336 240
WIRE 432 272 432 240
WIRE 1392 288 1392 208
WIRE 272 304 272 240
WIRE -96 320 -96 240
WIRE 336 368 336 336
WIRE 432 368 432 336
WIRE 528 368 528 320
WIRE 1104 384 1104 320
WIRE 1120 384 1104 384
WIRE 1264 384 1264 320
WIRE 1264 384 1184 384
WIRE 1264 400 1264 384
WIRE 1392 400 1392 368
WIRE 1392 400 1264 400
WIRE 1584 400 1584 160
WIRE 1584 400 1392 400
WIRE 928 432 928 336
WIRE 272 448 272 368
WIRE 1264 448 1264 400
WIRE 528 464 528 448
FLAG 528 464 0
FLAG -96 320 0
FLAG 336 368 0
FLAG 432 368 0
FLAG 272 448 0
FLAG 1264 448 0
FLAG 928 432 0
FLAG 192 -32 Vout
FLAG 976 32 V2
FLAG 864 160 0
FLAG 1968 32 Vout_neg
FLAG 1712 240 0
DATAFLAG 1920 32 ""
DATAFLAG 944 32 ""
SYMBOL voltage 528 352 R0
WINDOW 123 24 124 Left 2
WINDOW 39 24 152 Left 2
SYMATTR SpiceLine Rser=100m
SYMATTR InstName V1
SYMATTR Value SINE({Vdc} 2m 100k)
SYMBOL bv 528 224 R0
SYMATTR InstName B1
SYMATTR Value V=white(10e6*time)/70
SYMBOL res 224 224 R90
WINDOW 0 0 56 VBottom 2
WINDOW 3 32 56 VTop 2
SYMATTR InstName R1
SYMATTR Value 1k
SYMBOL cap 16 224 R90
WINDOW 0 0 32 VBottom 2
WINDOW 3 32 32 VTop 2
SYMATTR InstName C1
SYMATTR Value 10µ
SYMBOL schottky 128 -16 R90
WINDOW 0 0 32 VBottom 2
WINDOW 3 32 32 VTop 2
SYMATTR InstName D1
SYMATTR Value 1N5819
SYMATTR Description Diode
SYMATTR Type diode
SYMBOL npn 144 160 M180
SYMATTR InstName Q1
SYMBOL res 144 96 R90
WINDOW 0 0 56 VBottom 2
WINDOW 3 32 56 VTop 2
SYMATTR InstName R2
SYMATTR Value 100
SYMBOL cap 320 272 R0
SYMATTR InstName C2
SYMATTR Value 100µ
SYMBOL cap 416 272 R0
SYMATTR InstName C3
SYMATTR Value 10µ
SYMBOL diode 288 368 R180
WINDOW 0 24 64 Left 2
WINDOW 3 24 0 Left 2
SYMATTR InstName D2
SYMATTR Value MMSD4148
SYMATTR Description Zener Diode
SYMATTR Type zener
SYMBOL PowerProducts\\LT8330 1184 208 R0
SYMATTR InstName U1
SYMBOL cap 1184 368 R90
WINDOW 0 0 32 VBottom 2
WINDOW 3 32 32 VTop 2
SYMATTR InstName C4
SYMATTR Value 1µ
SYMBOL res 912 240 R0
SYMATTR InstName R3
SYMATTR Value 806k
SYMBOL res 912 80 R0
SYMATTR InstName R4
SYMATTR Value 1Meg
SYMBOL cap 880 112 R180
WINDOW 0 24 56 Left 2
WINDOW 3 24 8 Left 2
SYMATTR InstName C5
SYMATTR Value 4.7µ
SYMBOL res 1376 272 R0
SYMATTR InstName R5
SYMATTR Value 71.5k
SYMBOL ind2 1248 16 R90
WINDOW 0 4 56 VBottom 2
WINDOW 3 32 56 VTop 2
SYMATTR InstName L1
SYMATTR Value 10µ
SYMATTR Type ind
SYMBOL ind2 1456 48 R270
WINDOW 0 32 56 VTop 2
WINDOW 3 5 56 VBottom 2
SYMATTR InstName L2
SYMATTR Value 10µ
SYMATTR Type ind
SYMBOL cap 1408 16 R90
WINDOW 0 0 32 VBottom 2
WINDOW 3 32 32 VTop 2
SYMATTR InstName C6
SYMATTR Value 1µ
SYMBOL cap 1568 64 R0
SYMATTR InstName C7
SYMATTR Value 1µ
SYMBOL res 1648 48 R0
SYMATTR InstName R6
SYMATTR Value 1Meg
SYMBOL cap 1744 80 R0
SYMATTR InstName C8
SYMATTR Value 4.7µ
SYMBOL ind 1808 48 R270
WINDOW 0 32 56 VTop 2
WINDOW 3 5 56 VBottom 2
SYMATTR InstName L3
SYMATTR Value 130n
SYMBOL schottky 1472 176 R270
WINDOW 0 32 32 VTop 2
WINDOW 3 0 32 VBottom 2
SYMATTR InstName D3
SYMATTR Value PMEG6010AED
SYMATTR Description Diode
SYMATTR Type diode
TEXT 360 -80 Left 2 !.tran 0 1 0
TEXT 352 0 Left 2 !.param Vdc={mc(Vset, 0.0075)}
TEXT 360 -48 Left 2 ;.step param run 1 5 1
TEXT 352 40 Left 2 !.param Vset=12
TEXT 360 80 Left 2 ;.param Vdc = 0
TEXT 360 -120 Left 2 ;.noise V(Vout_neg) V1 dec 50 10 1Meg
TEXT 1008 -96 Left 2 !.param V2 12
TEXT 360 120 Left 2 ;.op
TEXT 1256 -80 Left 2 !K L1 L2 1
